#======================================================================

# CRYSTAL DATA

#----------------------------------------------------------------------

data_VESTA_phase_1


_chemical_name_common                  ''
_cell_length_a                         7.5650(15)
_cell_length_b                         7.7500(15)
_cell_length_c                         16.835(3)
_cell_angle_alpha                      89.15(3)
_cell_angle_beta                       78.42(3)
_cell_angle_gamma                      83.63(3)
_space_group_name_H-M_alt              'P -1'
_space_group_IT_number                 2

loop_
_space_group_symop_operation_xyz
   'x, y, z'
   '-x, -y, -z'

loop_
   _atom_site_label
   _atom_site_occupancy
   _atom_site_fract_x
   _atom_site_fract_y
   _atom_site_fract_z
   _atom_site_adp_type
   _atom_site_U_iso_or_equiv
   _atom_site_type_symbol
   Si         1.0     0.24768(7)    0.70921(7)    0.32285(3)   Uiso  0.029348 Si
   C1         1.0     0.4466(2)     0.9381(2)     0.08003(10)  Uiso  0.023720 C
   C2         1.0     0.3199(2)     1.0454(2)     0.04465(10)  Uiso  0.023803 C
   C3         1.0     0.1407(2)     1.0922(2)     0.08608(11)  Uiso  0.026367 C
   H3         1.0     0.105000      1.053000      0.140000     Uiso  0.032000 H
   C4         1.0     0.0142(2)     1.1931(2)     0.05141(11)  Uiso  0.025673 C
   C5         1.0    -0.1682(4)     1.2397(2)     0.09352(12)  Uiso  0.032742 C
   H5         1.0    -0.205300      1.201300      0.147600     Uiso  0.039000 H
   C6         1.0    -0.2889(4)     1.3374(4)     0.05775(12)  Uiso  0.036300 C
   H6         1.0    -0.409200      1.367900      0.087000     Uiso  0.044000 H
   C7         1.0    -0.2372(4)     1.3951(4)    -0.02323(12)  Uiso  0.034779 C
   H7         1.0    -0.323800      1.462900     -0.047800     Uiso  0.042000 H
   C8         1.0    -0.0669(4)     1.3548(2)    -0.06560(12)  Uiso  0.030875 C
   H8         1.0    -0.035000      1.395200     -0.119600     Uiso  0.037000 H
   C9         1.0     0.0667(4)     1.2520(2)    -0.03062(11)  Uiso  0.025773 C
   C10        1.0     0.2432(2)     1.2092(2)    -0.07194(11)  Uiso  0.025132 C
   H10        1.0     0.277800      1.250200     -0.125700     Uiso  0.030000 H
   C11        1.0     0.3735(2)     1.1069(2)    -0.03731(10)  Uiso  0.023936 C
   C12        1.0     0.3890(2)     0.8704(2)     0.15976(11)  Uiso  0.025793 C
   C13        1.0     0.3365(4)     0.8091(4)     0.22536(11)  Uiso  0.030523 C
   C14        1.0     0.3185(4)     0.4684(4)     0.31306(12)  Uiso  0.041019 C
   H14        1.0     0.269800      0.414800      0.366200     Uiso  0.049000 H
   C15        1.0     0.2391(4)     0.3841(4)     0.24775(14)  Uiso  0.064001 C
   H15A       1.0     0.275400      0.441700      0.195700     Uiso  0.096000 H
   H15B       1.0     0.106400      0.396300      0.263500     Uiso  0.096000 H
   H15C       1.0     0.285000      0.260600      0.242500     Uiso  0.096000 H
   C16        1.0     0.5256(4)     0.4279(4)     0.29610(16)  Uiso  0.059798 C
   H16A       1.0     0.558100      0.302000      0.290600     Uiso  0.090000 H
   H16B       1.0     0.573200      0.471200      0.341100     Uiso  0.090000 H
   H16C       1.0     0.578100      0.484400      0.245800     Uiso  0.090000 H
   C17        1.0     0.3563(4)     0.8042(4)     0.40056(12)  Uiso  0.037774 C
   H17        1.0     0.490300      0.779300      0.380300     Uiso  0.045000 H
   C18        1.0     0.3169(4)     0.7199(4)     0.48408(13)  Uiso  0.056888 C
   H18A       1.0     0.394500      0.761700      0.518100     Uiso  0.085000 H
   H18B       1.0     0.341900      0.593500      0.478100     Uiso  0.085000 H
   H18C       1.0     0.189200      0.750700      0.509500     Uiso  0.085000 H
   C19        1.0     0.3180(4)     1.0018(4)     0.40823(16)  Uiso  0.076155 C
   H19A       1.0     0.188600      1.033800      0.430300     Uiso  0.114000 H
   H19B       1.0     0.350800      1.054000      0.354700     Uiso  0.114000 H
   H19C       1.0     0.390000      1.044200      0.444600     Uiso  0.114000 H
   C20        0.6350 -0.0060(4)     0.7547(4)     0.34252(16)  Uiso  0.061460 C
   H20        0.6350 -0.038200      0.691600      0.296900     Uiso  0.074000 H
   C21        0.6350 -0.0958(13)    0.6619(13)    0.4153(7)    Uiso  0.056017 C
   H21A       0.6350 -0.031700      0.545300      0.417300     Uiso  0.084000 H
   H21B       0.6350 -0.222300      0.652700      0.412100     Uiso  0.084000 H
   H21C       0.6350 -0.092300      0.726700      0.464400     Uiso  0.084000 H
   C22        0.6350 -0.0831(7)     0.9328(8)     0.3320(4)    Uiso  0.068089 C
   H22A       0.6350 -0.010600      0.983200      0.284200     Uiso  0.102000 H
   H22B       0.6350 -0.082200      1.001800      0.380200     Uiso  0.102000 H
   H22C       0.6350 -0.208300      0.933000      0.324500     Uiso  0.102000 H

loop_
   _atom_site_aniso_label
   _atom_site_aniso_U_11
   _atom_site_aniso_U_22
   _atom_site_aniso_U_33
   _atom_site_aniso_U_12
   _atom_site_aniso_U_13
   _atom_site_aniso_U_23
   Si	 0.03000  0.03340  0.02400 -0.00580 -0.00340  0.01090
   C1	 0.03120  0.02100  0.01950 -0.00640 -0.00480  0.00510
   C2	 0.03020  0.01930  0.02280 -0.00560 -0.00600  0.00210
   C3	 0.03390  0.02230  0.02260 -0.00600 -0.00360  0.00340
   H3	 0.00000  0.00000  0.00000  0.00000  0.00000  0.00000
   C4	 0.02960  0.02090  0.02680 -0.00360 -0.00580 -0.00080
   C5	 0.03220  0.03340  0.03150 -0.00530 -0.00280  0.00040
   H5	 0.00000  0.00000  0.00000  0.00000  0.00000  0.00000
   C6	 0.02980  0.03600  0.04170  0.00000 -0.00570 -0.00130
   H6	 0.00000  0.00000  0.00000  0.00000  0.00000  0.00000
   C7	 0.03560  0.02960  0.04130  0.00210 -0.01590 -0.00030
   H7	 0.00000  0.00000  0.00000  0.00000  0.00000  0.00000
   C8	 0.03830  0.02650  0.03010 -0.00290 -0.01280  0.00270
   H8	 0.00000  0.00000  0.00000  0.00000  0.00000  0.00000
   C9	 0.03240  0.01940  0.02730 -0.00510 -0.00900  0.00030
   C10	 0.03430  0.02100  0.02080 -0.00460 -0.00660  0.00370
   H10	 0.00000  0.00000  0.00000  0.00000  0.00000  0.00000
   C11	 0.03040  0.02050  0.02210 -0.00590 -0.00660  0.00290
   C12	 0.02820  0.02410  0.02590 -0.00210 -0.00800  0.00300
   C13	 0.02980  0.03430  0.02680 -0.00300 -0.00490  0.00750
   C14	 0.05910  0.03580  0.02760 -0.00720 -0.00710  0.01140
   H14	 0.00000  0.00000  0.00000  0.00000  0.00000  0.00000
   C15	 0.10300  0.04320  0.05000 -0.01250 -0.02290  0.00070
   H15A	 0.00000  0.00000  0.00000  0.00000  0.00000  0.00000
   H15B	 0.00000  0.00000  0.00000  0.00000  0.00000  0.00000
   H15C	 0.00000  0.00000  0.00000  0.00000  0.00000  0.00000
   C16	 0.07040  0.04960  0.05140  0.01720 -0.00650  0.00480
   H16A	 0.00000  0.00000  0.00000  0.00000  0.00000  0.00000
   H16B	 0.00000  0.00000  0.00000  0.00000  0.00000  0.00000
   H16C	 0.00000  0.00000  0.00000  0.00000  0.00000  0.00000
   C17	 0.04320  0.04070  0.03100 -0.01070 -0.00860  0.01030
   H17	 0.00000  0.00000  0.00000  0.00000  0.00000  0.00000
   C18	 0.07660  0.06820  0.03500 -0.02860 -0.02270  0.01490
   H18A	 0.00000  0.00000  0.00000  0.00000  0.00000  0.00000
   H18B	 0.00000  0.00000  0.00000  0.00000  0.00000  0.00000
   H18C	 0.00000  0.00000  0.00000  0.00000  0.00000  0.00000
   C19	 0.12800  0.04940  0.06360 -0.02480 -0.04110  0.00470
   H19A	 0.00000  0.00000  0.00000  0.00000  0.00000  0.00000
   H19B	 0.00000  0.00000  0.00000  0.00000  0.00000  0.00000
   H19C	 0.00000  0.00000  0.00000  0.00000  0.00000  0.00000
   C20	 0.03450  0.07650  0.07060 -0.00940 -0.00510  0.04150
   H20	 0.00000  0.00000  0.00000  0.00000  0.00000  0.00000
   C21	 0.01700  0.07500  0.07000 -0.00500  0.00400  0.02300
   H21A	 0.00000  0.00000  0.00000  0.00000  0.00000  0.00000
   H21B	 0.00000  0.00000  0.00000  0.00000  0.00000  0.00000
   H21C	 0.00000  0.00000  0.00000  0.00000  0.00000  0.00000
   C22	 0.03600  0.06900  0.08700  0.00900  0.00700  0.02500
   H22A	 0.00000  0.00000  0.00000  0.00000  0.00000  0.00000
   H22B	 0.00000  0.00000  0.00000  0.00000  0.00000  0.00000
   H22C	 0.00000  0.00000  0.00000  0.00000  0.00000  0.00000
